<?xml version="1.0" encoding="UTF-8"?>

<!-- generated on Thu Dec 13 00:47:38 2018 by SUMO netconvert Version 0.32.0
<?xml version="1.0" encoding="UTF-8"?>

<configuration xmlns:xsi="http://www.w3.org/2001/XMLSchema-instance" xsi:noNamespaceSchemaLocation="http://sumo.dlr.de/xsd/netconvertConfiguration.xsd">

    <input>
        <osm-files value="jubilee.osm"/>
    </input>

    <output>
        <output-file value="jubilee.net.xml"/>
    </output>

    <projection>
        <proj.utm value="true"/>
    </projection>

</configuration>
-->

<net version="0.27" xmlns:xsi="http://www.w3.org/2001/XMLSchema-instance" xsi:noNamespaceSchemaLocation="http://sumo.dlr.de/xsd/net_file.xsd">

    <location netOffset="-223745.94,-1927238.97" convBoundary="0.00,0.00,3140.88,2733.50" origBoundary="78.378353,17.414383,78.445899,17.454716" projParameter="+proj=utm +zone=44 +ellps=WGS84 +datum=WGS84 +units=m +no_defs"/>

    <type id="highway.bridleway" priority="1" numLanes="1" speed="2.78" allow="pedestrian" oneway="1" width="2.00"/>
    <type id="highway.bus_guideway" priority="1" numLanes="1" speed="8.33" allow="bus" oneway="1"/>
    <type id="highway.cycleway" priority="1" numLanes="1" speed="5.56" allow="bicycle" oneway="0" width="1.00"/>
    <type id="highway.footway" priority="1" numLanes="1" speed="2.78" allow="pedestrian" oneway="1" width="2.00"/>
    <type id="highway.ford" priority="1" numLanes="1" speed="2.78" allow="army" oneway="0"/>
    <type id="highway.living_street" priority="3" numLanes="1" speed="2.78" disallow="tram rail_urban rail rail_electric ship" oneway="0"/>
    <type id="highway.motorway" priority="13" numLanes="2" speed="44.44" allow="private emergency authority army vip passenger hov taxi bus coach delivery truck trailer motorcycle evehicle custom1 custom2" oneway="1"/>
    <type id="highway.motorway_link" priority="12" numLanes="1" speed="22.22" allow="private emergency authority army vip passenger hov taxi bus coach delivery truck trailer motorcycle evehicle custom1 custom2" oneway="1"/>
    <type id="highway.path" priority="1" numLanes="1" speed="2.78" allow="bicycle pedestrian" oneway="1" width="2.00"/>
    <type id="highway.pedestrian" priority="1" numLanes="1" speed="2.78" allow="pedestrian" oneway="1" width="2.00"/>
    <type id="highway.primary" priority="9" numLanes="2" speed="27.78" disallow="tram rail_urban rail rail_electric ship" oneway="0"/>
    <type id="highway.primary_link" priority="8" numLanes="1" speed="22.22" disallow="tram rail_urban rail rail_electric ship" oneway="0"/>
    <type id="highway.raceway" priority="14" numLanes="2" speed="83.33" allow="vip" oneway="0"/>
    <type id="highway.residential" priority="4" numLanes="1" speed="13.89" disallow="tram rail_urban rail rail_electric ship" oneway="0"/>
    <type id="highway.secondary" priority="7" numLanes="2" speed="27.78" disallow="tram rail_urban rail rail_electric ship" oneway="0"/>
    <type id="highway.secondary_link" priority="6" numLanes="1" speed="22.22" disallow="tram rail_urban rail rail_electric ship" oneway="0"/>
    <type id="highway.service" priority="2" numLanes="1" speed="5.56" allow="delivery bicycle pedestrian" oneway="0"/>
    <type id="highway.services" priority="1" numLanes="1" speed="8.33" disallow="tram rail_urban rail rail_electric ship" oneway="0"/>
    <type id="highway.stairs" priority="1" numLanes="1" speed="1.39" allow="pedestrian" oneway="1" width="2.00"/>
    <type id="highway.step" priority="1" numLanes="1" speed="1.39" allow="pedestrian" oneway="1" width="2.00"/>
    <type id="highway.steps" priority="1" numLanes="1" speed="1.39" allow="pedestrian" oneway="1" width="2.00"/>
    <type id="highway.tertiary" priority="6" numLanes="1" speed="22.22" disallow="tram rail_urban rail rail_electric ship" oneway="0"/>
    <type id="highway.tertiary_link" priority="5" numLanes="1" speed="22.22" disallow="tram rail_urban rail rail_electric ship" oneway="0"/>
    <type id="highway.track" priority="1" numLanes="1" speed="5.56" disallow="tram rail_urban rail rail_electric ship" oneway="0"/>
    <type id="highway.trunk" priority="11" numLanes="2" speed="27.78" disallow="tram rail_urban rail rail_electric bicycle pedestrian ship" oneway="0"/>
    <type id="highway.trunk_link" priority="10" numLanes="1" speed="22.22" disallow="tram rail_urban rail rail_electric bicycle pedestrian ship" oneway="0"/>
    <type id="highway.unclassified" priority="5" numLanes="1" speed="13.89" disallow="tram rail_urban rail rail_electric ship" oneway="0"/>
    <type id="highway.unsurfaced" priority="1" numLanes="1" speed="8.33" disallow="tram rail_urban rail rail_electric ship" oneway="0"/>
    <type id="railway.light_rail" priority="15" numLanes="1" speed="27.78" allow="rail_urban" oneway="1"/>
    <type id="railway.preserved" priority="15" numLanes="1" speed="27.78" allow="rail" oneway="1"/>
    <type id="railway.rail" priority="15" numLanes="1" speed="83.33" allow="rail rail_electric" oneway="1"/>
    <type id="railway.subway" priority="15" numLanes="1" speed="27.78" allow="rail_urban" oneway="1"/>
    <type id="railway.tram" priority="15" numLanes="1" speed="13.89" allow="tram" oneway="1"/>

    <edge id=":1693987811_0" function="internal">
        <lane id=":1693987811_0_0" index="0" disallow="tram rail_urban rail rail_electric ship" speed="13.89" length="6.09" shape="1482.27,1382.67 1480.85,1381.85 1479.49,1381.67 1478.17,1382.14 1476.91,1383.26"/>
    </edge>
    <edge id=":1693987811_1" function="internal">
        <lane id=":1693987811_1_0" index="0" disallow="tram rail_urban rail rail_electric ship" speed="13.89" length="10.42" shape="1482.27,1382.67 1479.88,1380.79 1478.12,1379.51 1476.29,1378.34 1473.68,1376.79"/>
    </edge>
    <edge id=":1693987811_2" function="internal">
        <lane id=":1693987811_2_0" index="0" disallow="tram rail_urban rail rail_electric ship" speed="13.89" length="11.11" shape="1482.27,1382.67 1480.13,1380.40 1479.36,1378.09 1479.95,1375.71 1481.90,1373.29"/>
    </edge>
    <edge id=":1693987811_3" function="internal">
        <lane id=":1693987811_3_0" index="0" disallow="tram rail_urban rail rail_electric ship" speed="13.89" length="4.82" shape="1482.27,1382.67 1481.81,1381.25 1482.00,1380.35 1482.84,1379.96 1484.32,1380.09"/>
    </edge>
    <edge id=":1693987811_4" function="internal">
        <lane id=":1693987811_4_0" index="0" disallow="tram rail_urban rail rail_electric ship" speed="13.89" length="5.19" shape="1484.15,1375.71 1483.24,1376.84 1482.96,1377.95 1483.32,1379.03 1484.32,1380.09"/>
    </edge>
    <edge id=":1693987811_5" function="internal">
        <lane id=":1693987811_5_0" index="0" disallow="tram rail_urban rail rail_electric ship" speed="13.89" length="10.47" shape="1484.15,1375.71 1481.93,1377.79 1480.38,1379.33 1478.90,1380.95 1476.91,1383.26"/>
    </edge>
    <edge id=":1693987811_6" function="internal">
        <lane id=":1693987811_6_0" index="0" disallow="tram rail_urban rail rail_electric ship" speed="13.89" length="5.66" shape="1484.15,1375.71 1481.71,1377.44 1479.15,1378.19"/>
    </edge>
    <edge id=":1693987811_7" function="internal">
        <lane id=":1693987811_7_0" index="0" disallow="tram rail_urban rail rail_electric ship" speed="13.89" length="2.41" shape="1484.15,1375.71 1482.68,1375.95 1481.82,1375.62"/>
    </edge>
    <edge id=":1693987811_16" function="internal">
        <lane id=":1693987811_16_0" index="0" speed="13.89" length="5.72" shape="1479.15,1378.19 1476.48,1377.98 1473.68,1376.79"/>
    </edge>
    <edge id=":1693987811_17" function="internal">
        <lane id=":1693987811_17_0" index="0" speed="13.89" length="2.41" shape="1481.82,1375.62 1481.56,1374.74 1481.90,1373.29"/>
    </edge>
    <edge id=":1693987811_8" function="internal">
        <lane id=":1693987811_8_0" index="0" disallow="tram rail_urban rail rail_electric ship" speed="13.89" length="7.12" shape="1475.35,1373.94 1477.11,1374.69 1478.78,1374.83 1480.38,1374.37 1481.90,1373.29"/>
    </edge>
    <edge id=":1693987811_9" function="internal">
        <lane id=":1693987811_9_0" index="0" disallow="tram rail_urban rail rail_electric ship" speed="13.89" length="10.88" shape="1475.35,1373.94 1478.02,1375.53 1479.99,1376.80 1481.87,1378.17 1484.32,1380.09"/>
    </edge>
    <edge id=":1693987811_10" function="internal">
        <lane id=":1693987811_10_0" index="0" disallow="tram rail_urban rail rail_electric ship" speed="13.89" length="11.27" shape="1475.35,1373.94 1477.83,1375.92 1478.92,1378.13 1478.61,1380.58 1476.91,1383.26"/>
    </edge>
    <edge id=":1693987811_11" function="internal">
        <lane id=":1693987811_11_0" index="0" disallow="tram rail_urban rail rail_electric ship" speed="13.89" length="4.82" shape="1475.35,1373.94 1476.00,1375.28 1475.94,1376.20 1475.17,1376.71 1473.68,1376.79"/>
    </edge>
    <edge id=":1693987811_12" function="internal">
        <lane id=":1693987811_12_0" index="0" disallow="tram rail_urban rail rail_electric ship" speed="13.89" length="5.23" shape="1474.41,1381.11 1475.19,1379.87 1475.34,1378.73 1474.83,1377.71 1473.68,1376.79"/>
    </edge>
    <edge id=":1693987811_13" function="internal">
        <lane id=":1693987811_13_0" index="0" disallow="tram rail_urban rail rail_electric ship" speed="13.89" length="10.84" shape="1474.41,1381.11 1476.43,1378.76 1478.00,1377.05 1479.64,1375.41 1481.90,1373.29"/>
    </edge>
    <edge id=":1693987811_14" function="internal">
        <lane id=":1693987811_14_0" index="0" disallow="tram rail_urban rail rail_electric ship" speed="13.89" length="5.67" shape="1474.41,1381.11 1476.73,1379.06 1479.15,1378.20"/>
    </edge>
    <edge id=":1693987811_15" function="internal">
        <lane id=":1693987811_15_0" index="0" disallow="tram rail_urban rail rail_electric ship" speed="13.89" length="2.41" shape="1474.41,1381.11 1475.84,1380.71 1476.73,1380.93"/>
    </edge>
    <edge id=":1693987811_18" function="internal">
        <lane id=":1693987811_18_0" index="0" speed="13.89" length="5.61" shape="1479.15,1378.20 1481.68,1378.55 1484.32,1380.09"/>
    </edge>
    <edge id=":1693987811_19" function="internal">
        <lane id=":1693987811_19_0" index="0" speed="13.89" length="2.41" shape="1476.73,1380.93 1477.09,1381.78 1476.91,1383.26"/>
    </edge>
    <edge id=":1693987901_0" function="internal">
        <lane id=":1693987901_0_0" index="0" disallow="tram rail_urban rail rail_electric ship" speed="13.89" length="9.50" shape="1525.80,1409.60 1519.32,1416.56"/>
    </edge>
    <edge id=":1693987901_1" function="internal">
        <lane id=":1693987901_1_0" index="0" disallow="tram rail_urban rail rail_electric ship" speed="13.89" length="5.02" shape="1525.80,1409.60 1523.68,1411.27 1521.44,1411.89"/>
    </edge>
    <edge id=":1693987901_2" function="internal">
        <lane id=":1693987901_2_0" index="0" disallow="tram rail_urban rail rail_electric ship" speed="13.89" length="2.41" shape="1525.80,1409.60 1524.35,1409.94 1523.47,1409.68"/>
    </edge>
    <edge id=":1693987901_9" function="internal">
        <lane id=":1693987901_9_0" index="0" speed="13.89" length="5.32" shape="1521.44,1411.89 1519.07,1411.44 1516.58,1409.94"/>
    </edge>
    <edge id=":1693987901_10" function="internal">
        <lane id=":1693987901_10_0" index="0" speed="13.89" length="2.41" shape="1523.47,1409.68 1523.15,1408.82 1523.39,1407.35"/>
    </edge>
    <edge id=":1693987901_3" function="internal">
        <lane id=":1693987901_3_0" index="0" disallow="tram rail_urban rail rail_electric ship" speed="13.89" length="5.33" shape="1518.63,1407.35 1519.95,1408.17 1521.19,1408.44 1522.33,1408.17 1523.39,1407.35"/>
    </edge>
    <edge id=":1693987901_4" function="internal">
        <lane id=":1693987901_4_0" index="0" disallow="tram rail_urban rail rail_electric ship" speed="13.89" length="10.72" shape="1518.63,1407.35 1520.67,1409.51 1521.46,1411.77 1521.01,1414.11 1519.32,1416.56"/>
    </edge>
    <edge id=":1693987901_5" function="internal">
        <lane id=":1693987901_5_0" index="0" disallow="tram rail_urban rail rail_electric ship" speed="13.89" length="4.82" shape="1518.63,1407.35 1519.08,1408.77 1518.89,1409.67 1518.06,1410.06 1516.58,1409.94"/>
    </edge>
    <edge id=":1693987901_6" function="internal">
        <lane id=":1693987901_6_0" index="0" disallow="tram rail_urban rail rail_electric ship" speed="13.89" length="5.09" shape="1516.91,1414.31 1517.71,1413.15 1517.92,1412.03 1517.54,1410.96 1516.58,1409.94"/>
    </edge>
    <edge id=":1693987901_7" function="internal">
        <lane id=":1693987901_7_0" index="0" disallow="tram rail_urban rail rail_electric ship" speed="13.89" length="9.51" shape="1516.91,1414.31 1523.39,1407.35"/>
    </edge>
    <edge id=":1693987901_8" function="internal">
        <lane id=":1693987901_8_0" index="0" disallow="tram rail_urban rail rail_electric ship" speed="13.89" length="2.41" shape="1516.91,1414.31 1518.35,1413.96 1519.24,1414.22"/>
    </edge>
    <edge id=":1693987901_11" function="internal">
        <lane id=":1693987901_11_0" index="0" speed="13.89" length="2.41" shape="1519.24,1414.22 1519.56,1415.09 1519.32,1416.56"/>
    </edge>
    <edge id=":1948703253_0" function="internal">
        <lane id=":1948703253_0_0" index="0" disallow="tram rail_urban rail rail_electric ship" speed="13.89" length="9.02" shape="1603.34,1257.25 1604.78,1259.42 1605.83,1260.85 1606.98,1262.21 1608.73,1264.14"/>
        <lane id=":1948703253_0_1" index="1" disallow="tram rail_urban rail rail_electric ship" speed="13.89" length="9.02" shape="1600.58,1259.06 1602.11,1261.35 1603.22,1262.88 1604.44,1264.32 1606.28,1266.36"/>
    </edge>
    <edge id=":1948703253_2" function="internal">
        <lane id=":1948703253_2_0" index="0" disallow="tram rail_urban rail rail_electric ship" speed="13.89" length="7.77" shape="1600.58,1259.06 1601.94,1261.45 1602.61,1263.43 1602.60,1265.01 1601.90,1266.17"/>
    </edge>
    <edge id=":1948703253_3" function="internal">
        <lane id=":1948703253_3_0" index="0" disallow="tram rail_urban rail rail_electric ship" speed="13.89" length="7.88" shape="1599.66,1263.76 1600.94,1263.11 1602.47,1263.33 1604.25,1264.41 1606.28,1266.36"/>
    </edge>
    <edge id=":1948703253_4" function="internal">
        <lane id=":1948703253_4_0" index="0" disallow="tram rail_urban rail rail_electric ship" speed="13.89" length="4.82" shape="1599.66,1263.76 1601.12,1263.52 1601.99,1263.84 1602.25,1264.73 1601.90,1266.17"/>
    </edge>
    <edge id=":1948881778_0" function="internal">
        <lane id=":1948881778_0_0" index="0" disallow="tram rail_urban rail rail_electric ship" speed="13.89" length="9.43" shape="1630.87,1288.53 1637.27,1295.40"/>
        <lane id=":1948881778_0_1" index="1" disallow="tram rail_urban rail rail_electric ship" speed="13.89" length="9.43" shape="1628.43,1290.75 1634.89,1297.68"/>
    </edge>
    <edge id=":1948881778_2" function="internal">
        <lane id=":1948881778_2_0" index="0" disallow="tram rail_urban rail rail_electric ship" speed="13.89" length="7.93" shape="1628.43,1290.75 1630.14,1292.93 1631.06,1294.82 1631.18,1296.41 1630.50,1297.70"/>
    </edge>
    <edge id=":1948881778_3" function="internal">
        <lane id=":1948881778_3_0" index="0" disallow="tram rail_urban rail rail_electric ship" speed="13.89" length="8.01" shape="1628.09,1295.45 1629.38,1294.66 1630.94,1294.77 1632.78,1295.78 1634.89,1297.68"/>
    </edge>
    <edge id=":1948881778_4" function="internal">
        <lane id=":1948881778_4_0" index="0" disallow="tram rail_urban rail rail_electric ship" speed="13.89" length="4.82" shape="1628.09,1295.45 1629.54,1295.11 1630.42,1295.37 1630.74,1296.24 1630.50,1297.70"/>
    </edge>
    <edge id=":289515752_0" function="internal">
        <lane id=":289515752_0_0" index="0" disallow="tram rail_urban rail rail_electric ship" speed="27.78" length="6.58" shape="1773.94,1364.70 1775.79,1364.74 1777.07,1364.78 1778.33,1364.70 1780.16,1364.39"/>
        <lane id=":289515752_0_1" index="1" disallow="tram rail_urban rail rail_electric ship" speed="27.78" length="6.58" shape="1773.92,1368.00 1775.98,1368.04 1777.39,1368.07 1778.79,1367.97 1780.81,1367.63"/>
    </edge>
    <edge id=":289515752_2" function="internal">
        <lane id=":289515752_2_0" index="0" disallow="tram rail_urban rail rail_electric ship" speed="25.00" length="6.31" shape="1776.24,1371.64 1777.12,1370.11 1778.17,1368.93 1779.40,1368.10 1780.81,1367.63"/>
    </edge>
    <edge id=":2967933274_0" function="internal">
        <lane id=":2967933274_0_0" index="0" disallow="tram rail_urban rail rail_electric ship" speed="27.78" length="7.23" shape="1734.40,1359.81 1735.72,1361.88 1737.01,1363.36 1738.27,1364.25 1739.50,1364.56"/>
    </edge>
    <edge id=":2967933274_1" function="internal">
        <lane id=":2967933274_1_0" index="0" disallow="tram rail_urban rail rail_electric ship" speed="27.78" length="12.15" shape="1730.53,1359.64 1739.48,1367.86"/>
    </edge>
    <edge id=":2967933274_2" function="internal">
        <lane id=":2967933274_2_0" index="0" disallow="tram rail_urban rail rail_electric ship" speed="27.78" length="11.82" shape="1728.36,1362.42 1731.62,1363.37 1733.86,1364.03 1736.14,1364.42 1739.50,1364.56"/>
        <lane id=":2967933274_2_1" index="1" disallow="tram rail_urban rail rail_electric ship" speed="27.78" length="11.82" shape="1727.51,1365.61 1731.01,1366.62 1733.42,1367.31 1735.87,1367.71 1739.48,1367.86"/>
    </edge>
    <edge id=":3146873004_0" function="internal">
        <lane id=":3146873004_0_0" index="0" disallow="tram rail_urban rail rail_electric ship" speed="27.78" length="7.54" shape="1766.85,1413.27 1761.59,1407.87"/>
        <lane id=":3146873004_0_1" index="1" disallow="tram rail_urban rail rail_electric ship" speed="27.78" length="7.54" shape="1769.21,1410.96 1763.95,1405.56"/>
    </edge>
    <edge id=":3146873004_2" function="internal">
        <lane id=":3146873004_2_0" index="0" disallow="tram rail_urban rail rail_electric ship" speed="25.00" length="7.42" shape="1769.21,1410.96 1767.94,1409.31 1767.55,1407.88 1767.62,1406.25 1767.76,1404.04"/>
    </edge>
    <edge id=":3146873007_0" function="internal">
        <lane id=":3146873007_0_0" index="0" disallow="tram rail_urban rail rail_electric ship" speed="27.78" length="5.19" shape="1726.66,1355.91 1725.42,1356.04 1724.37,1356.56 1723.50,1357.49 1722.82,1358.82"/>
    </edge>
    <edge id=":3146873007_1" function="internal">
        <lane id=":3146873007_1_0" index="0" disallow="tram rail_urban rail rail_electric ship" speed="27.78" length="7.48" shape="1726.66,1355.91 1723.93,1355.89 1721.87,1356.17 1720.47,1356.75 1719.74,1357.64"/>
    </edge>
    <edge id=":3146873007_2" function="internal">
        <lane id=":3146873007_2_0" index="0" disallow="tram rail_urban rail rail_electric ship" speed="27.78" length="6.75" shape="1726.66,1355.91 1719.91,1355.50"/>
        <lane id=":3146873007_2_1" index="1" disallow="tram rail_urban rail rail_electric ship" speed="27.78" length="6.75" shape="1726.85,1352.62 1720.13,1352.20"/>
    </edge>
    <edge id=":3146873008_0" function="internal">
        <lane id=":3146873008_0_0" index="0" disallow="tram rail_urban rail rail_electric ship" speed="27.78" length="3.83" shape="1715.39,1362.64 1712.69,1360.32 1712.56,1360.08"/>
    </edge>
    <edge id=":3146873008_1" function="internal">
        <lane id=":3146873008_1_0" index="0" disallow="tram rail_urban rail rail_electric ship" speed="27.78" length="8.22" shape="1715.39,1362.64 1709.64,1368.52"/>
    </edge>
    <edge id=":3146873008_2" function="internal">
        <lane id=":3146873008_2_0" index="0" disallow="tram rail_urban rail rail_electric ship" speed="27.78" length="7.72" shape="1715.39,1362.64 1714.07,1362.77 1711.88,1363.67 1709.67,1364.78 1708.30,1365.50"/>
    </edge>
    <edge id=":3146873008_3" function="internal">
        <lane id=":3146873008_3_0" index="0" disallow="tram rail_urban rail rail_electric ship" speed="27.78" length="6.54" shape="1715.39,1362.64 1713.52,1361.72 1711.93,1361.50 1710.52,1361.13 1709.16,1359.74"/>
        <lane id=":3146873008_3_1" index="1" disallow="tram rail_urban rail rail_electric ship" speed="27.78" length="6.54" shape="1717.38,1360.01 1715.79,1359.31 1714.40,1359.28 1713.15,1359.13 1711.99,1358.04"/>
    </edge>
    <edge id=":3146873008_10" function="internal">
        <lane id=":3146873008_10_0" index="0" speed="27.78" length="6.00" shape="1712.56,1360.08 1712.00,1358.99 1713.33,1358.66 1716.67,1359.31"/>
    </edge>
    <edge id=":3146873008_5" function="internal">
        <lane id=":3146873008_5_0" index="0" disallow="tram rail_urban rail rail_electric ship" speed="27.78" length="5.73" shape="1717.51,1354.41 1716.67,1359.31"/>
        <lane id=":3146873008_5_1" index="1" disallow="tram rail_urban rail rail_electric ship" speed="27.78" length="5.73" shape="1714.68,1356.12 1715.83,1362.50"/>
    </edge>
    <edge id=":3146873008_7" function="internal">
        <lane id=":3146873008_7_0" index="0" disallow="tram rail_urban rail rail_electric ship" speed="27.78" length="3.59" shape="1705.59,1359.42 1709.16,1359.74"/>
    </edge>
    <edge id=":3146873008_8" function="internal">
        <lane id=":3146873008_8_0" index="0" disallow="tram rail_urban rail rail_electric ship" speed="27.78" length="10.24" shape="1705.59,1359.42 1708.80,1358.51 1711.11,1358.22 1713.43,1358.50 1716.67,1359.31"/>
        <lane id=":3146873008_8_1" index="1" disallow="tram rail_urban rail rail_electric ship" speed="27.78" length="10.24" shape="1706.93,1362.43 1709.49,1361.67 1711.34,1361.49 1713.22,1361.81 1715.83,1362.50"/>
    </edge>
    <edge id=":3178328693_0" function="internal">
        <lane id=":3178328693_0_0" index="0" disallow="tram rail_urban rail rail_electric ship" speed="20.83" length="6.35" shape="1695.84,1367.00 1694.40,1365.51 1693.03,1364.73 1691.73,1364.68 1690.49,1365.34"/>
    </edge>
    <edge id=":3178328693_1" function="internal">
        <lane id=":3178328693_1_0" index="0" disallow="tram rail_urban rail rail_electric ship" speed="20.83" length="11.79" shape="1698.42,1364.95 1695.90,1362.42 1693.37,1361.23 1690.86,1361.36 1688.35,1362.83"/>
    </edge>
    <edge id=":3178328693_2" function="internal">
        <lane id=":3178328693_2_0" index="0" disallow="tram rail_urban rail rail_electric ship" speed="27.78" length="1.81" shape="1704.79,1359.96 1704.23,1360.10 1703.75,1360.26 1703.48,1360.49 1703.59,1360.85"/>
    </edge>
    <edge id=":3178328693_3" function="internal">
        <lane id=":3178328693_3_0" index="0" disallow="tram rail_urban rail rail_electric ship" speed="20.83" length="17.87" shape="1704.79,1359.96 1699.71,1360.53 1695.92,1360.15 1692.46,1360.39 1688.35,1362.83"/>
        <lane id=":3178328693_3_1" index="1" disallow="tram rail_urban rail rail_electric ship" speed="20.83" length="17.87" shape="1703.95,1356.77 1698.46,1357.46 1694.38,1357.20 1690.66,1357.61 1686.21,1360.32"/>
    </edge>
    <edge id=":3178328693_5" function="internal">
        <lane id=":3178328693_5_0" index="0" disallow="tram rail_urban rail rail_electric ship" speed="20.83" length="11.95" shape="1690.62,1351.28 1691.96,1351.86 1694.36,1351.91 1697.80,1351.42 1702.29,1350.38"/>
    </edge>
    <edge id=":3178328693_6" function="internal">
        <lane id=":3178328693_6_0" index="0" disallow="tram rail_urban rail rail_electric ship" speed="20.83" length="13.34" shape="1690.62,1351.28 1692.99,1353.09 1695.87,1354.07 1699.24,1354.24 1703.12,1353.57"/>
    </edge>
    <edge id=":3178328693_7" function="internal">
        <lane id=":3178328693_7_0" index="0" disallow="tram rail_urban rail rail_electric ship" speed="20.83" length="16.04" shape="1690.62,1351.28 1694.29,1354.34 1697.32,1355.88 1700.24,1357.51 1703.59,1360.85"/>
        <lane id=":3178328693_7_1" index="1" disallow="tram rail_urban rail rail_electric ship" speed="20.83" length="16.04" shape="1688.33,1353.66 1691.91,1356.63 1694.87,1358.10 1697.73,1359.66 1701.01,1362.90"/>
    </edge>
    <edge id=":3178328693_9" function="internal">
        <lane id=":3178328693_9_0" index="0" disallow="tram rail_urban rail rail_electric ship" speed="13.89" length="7.91" shape="1688.33,1353.66 1689.16,1355.08 1689.08,1356.66 1688.10,1358.41 1686.21,1360.32"/>
    </edge>
    <edge id=":3178328694_0" function="internal">
        <lane id=":3178328694_0_0" index="0" disallow="tram rail_urban rail rail_electric ship" speed="27.78" length="6.02" shape="1709.47,1368.61 1707.86,1369.63 1706.90,1370.75 1706.59,1371.98 1706.92,1373.31"/>
    </edge>
    <edge id=":3178328694_1" function="internal">
        <lane id=":3178328694_1_0" index="0" disallow="tram rail_urban rail rail_electric ship" speed="27.78" length="11.37" shape="1708.12,1365.59 1705.28,1367.45 1703.63,1369.60 1703.19,1372.02 1703.94,1374.73"/>
    </edge>
    <edge id=":3178328694_2" function="internal">
        <lane id=":3178328694_2_0" index="0" disallow="tram rail_urban rail rail_electric ship" speed="27.78" length="2.27" shape="1703.72,1361.01 1705.40,1359.48"/>
    </edge>
    <edge id=":3178328694_3" function="internal">
        <lane id=":3178328694_3_0" index="0" disallow="tram rail_urban rail rail_electric ship" speed="27.78" length="12.59" shape="1703.72,1361.01 1705.50,1364.22 1705.78,1366.87 1705.83,1369.67 1706.92,1373.31"/>
        <lane id=":3178328694_3_1" index="1" disallow="tram rail_urban rail rail_electric ship" speed="27.78" length="12.59" shape="1701.13,1363.06 1702.78,1366.10 1702.97,1368.62 1702.94,1371.28 1703.94,1374.73"/>
    </edge>
    <edge id=":3178328694_5" function="internal">
        <lane id=":3178328694_5_0" index="0" disallow="tram rail_urban rail rail_electric ship" speed="20.83" length="3.31" shape="1694.30,1369.76 1694.95,1369.17 1695.63,1368.49 1696.07,1367.80 1695.96,1367.16"/>
    </edge>
    <edge id=":3178328694_6" function="internal">
        <lane id=":3178328694_6_0" index="0" disallow="tram rail_urban rail rail_electric ship" speed="20.83" length="6.42" shape="1694.30,1369.76 1695.35,1368.85 1696.93,1367.47 1698.25,1366.07 1698.55,1365.11"/>
    </edge>
    <edge id=":3178328694_7" function="internal">
        <lane id=":3178328694_7_0" index="0" disallow="tram rail_urban rail rail_electric ship" speed="20.83" length="14.87" shape="1694.30,1369.76 1697.29,1366.23 1699.16,1363.47 1701.37,1361.29 1705.40,1359.48"/>
        <lane id=":3178328694_7_1" index="1" disallow="tram rail_urban rail rail_electric ship" speed="20.83" length="14.87" shape="1696.62,1372.11 1699.37,1368.86 1701.07,1366.32 1703.07,1364.27 1706.74,1362.49"/>
    </edge>
    <edge id=":3178328694_9" function="internal">
        <lane id=":3178328694_9_0" index="0" disallow="tram rail_urban rail rail_electric ship" speed="20.83" length="3.38" shape="1698.93,1374.46 1700.49,1373.25 1701.85,1372.89"/>
    </edge>
    <edge id=":3178328694_10" function="internal">
        <lane id=":3178328694_10_0" index="0" speed="20.83" length="2.89" shape="1701.85,1372.89 1703.00,1373.38 1703.94,1374.73"/>
    </edge>
    <edge id=":3178334062_0" function="internal">
        <lane id=":3178334062_0_0" index="0" disallow="tram rail_urban rail rail_electric ship" speed="27.78" length="4.23" shape="1709.06,1359.57 1708.33,1359.23 1707.18,1359.33 1705.95,1359.63 1704.98,1359.91"/>
    </edge>
    <edge id=":3178334062_1" function="internal">
        <lane id=":3178334062_1_0" index="0" disallow="tram rail_urban rail rail_electric ship" speed="20.83" length="15.62" shape="1709.06,1359.57 1706.94,1355.60 1705.75,1352.67 1704.25,1350.00 1701.22,1346.80"/>
        <lane id=":3178334062_1_1" index="1" disallow="tram rail_urban rail rail_electric ship" speed="20.83" length="15.62" shape="1711.88,1357.87 1709.61,1353.64 1708.30,1350.55 1706.66,1347.73 1703.41,1344.33"/>
    </edge>
    <edge id=":3178334062_3" function="internal">
        <lane id=":3178334062_3_0" index="0" disallow="tram rail_urban rail rail_electric ship" speed="27.78" length="2.62" shape="1719.71,1355.48 1717.40,1354.24"/>
    </edge>
    <edge id=":3178334062_4" function="internal">
        <lane id=":3178334062_4_0" index="0" disallow="tram rail_urban rail rail_electric ship" speed="27.78" length="5.32" shape="1719.71,1355.48 1718.41,1355.41 1716.57,1355.37 1715.01,1355.51 1714.58,1355.95"/>
    </edge>
    <edge id=":3178334062_5" function="internal">
        <lane id=":3178334062_5_0" index="0" disallow="tram rail_urban rail rail_electric ship" speed="27.78" length="16.11" shape="1719.71,1355.48 1715.21,1355.69 1712.26,1356.78 1709.34,1358.33 1704.98,1359.91"/>
        <lane id=":3178334062_5_1" index="1" disallow="tram rail_urban rail rail_electric ship" speed="27.78" length="16.11" shape="1719.93,1352.19 1715.12,1352.38 1711.94,1353.47 1708.81,1355.06 1704.15,1356.72"/>
    </edge>
    <edge id=":3178334062_7" function="internal">
        <lane id=":3178334062_7_0" index="0" disallow="tram rail_urban rail rail_electric ship" speed="20.83" length="18.89" shape="1719.93,1352.19 1714.46,1351.56 1710.81,1350.31 1707.59,1348.04 1703.41,1344.33"/>
    </edge>
    <edge id=":3178334062_8" function="internal">
        <lane id=":3178334062_8_0" index="0" disallow="tram rail_urban rail rail_electric ship" speed="20.83" length="4.67" shape="1702.48,1350.33 1703.19,1349.90 1703.21,1349.17 1702.56,1348.14 1701.22,1346.80"/>
    </edge>
    <edge id=":3178334062_9" function="internal">
        <lane id=":3178334062_9_0" index="0" disallow="tram rail_urban rail rail_electric ship" speed="20.83" length="12.74" shape="1703.32,1353.52 1706.35,1352.16 1707.37,1350.18 1706.39,1347.57 1703.41,1344.33"/>
    </edge>
    <edge id=":3178334063_0" function="internal">
        <lane id=":3178334063_0_0" index="0" disallow="tram rail_urban rail rail_electric ship" speed="27.78" length="5.10" shape="1735.85,1380.25 1734.76,1379.38 1733.65,1379.10 1732.54,1379.39 1731.43,1380.27"/>
    </edge>
    <edge id=":3178334063_1" function="internal">