<?xml version="1.0" encoding="UTF-8"?>

<!-- generated on Thu Dec 13 00:46:46 2018 by SUMO polyconvert Version 0.32.0
<?xml version="1.0" encoding="UTF-8"?>

<configuration xmlns:xsi="http://www.w3.org/2001/XMLSchema-instance" xsi:noNamespaceSchemaLocation="http://sumo.dlr.de/xsd/polyconvertConfiguration.xsd">

    <input>
        <net-file value="jubilee.net.xml"/>
        <osm-files value="jubilee.osm"/>
        <type-file value="osmPolyconvert.typ.xml"/>
    </input>

    <output>
        <output-file value="jubilee.poly.xml"/>
    </output>

    <processing>
        <poi-layer-offset value="5"/>
    </processing>

</configuration>
-->

<additional xmlns:xsi="http://www.w3.org/2001/XMLSchema-instance" xsi:noNamespaceSchemaLocation="http://sumo.dlr.de/xsd/additional_file.xsd">
    <location netOffset="-223745.94,-1927238.97" convBoundary="-2201.13,-7.87,4946.73,4528.63" origBoundary="78.378353,17.414310,78.445899,17.454716" projParameter="+proj=utm +zone=44 +ellps=WGS84 +datum=WGS84 +units=m +no_defs"/>

    <poly id="250707222" type="tourism" color="207,245,201" fill="1" layer="-2.00" shape="1761.01,1394.10 1747.98,1379.54 1766.50,1379.97 1761.01,1394.10"/>
    <poly id="28268610" type="forest" color="140,196,107" fill="1" layer="-3.00" shape="1901.81,1313.39 1977.96,1286.71 2153.84,1218.74 2722.21,992.02 2858.32,935.72 2918.90,911.08 2997.12,853.79 3076.57,774.06 3118.77,679.39 3115.72,581.85 3145.51,520.18 3137.13,433.48 3147.90,401.41 3113.86,337.77 3005.62,359.66 2991.50,355.65 2930.08,319.89 2853.51,271.76 2814.27,234.79 2786.50,198.05 2776.23,176.02 2737.21,64.20 2719.76,45.06 2692.08,29.78 2608.28,-7.09 2588.31,-7.87 2562.69,-3.39 2516.21,6.69 2469.30,22.37 2438.97,37.43 2366.17,74.35 2355.64,86.18 2342.60,102.24 2278.17,221.78 2269.11,231.67 2254.32,237.19 2235.34,237.97 2213.50,235.42 2142.55,201.66 2124.52,198.05 2106.78,199.18 2075.07,207.16 2044.69,217.00 2018.09,228.03 1991.13,243.68 1969.74,269.90 1949.55,289.51 1920.42,302.84 1866.60,310.62 1806.45,325.87 1674.33,361.56 1546.72,400.54 1495.77,435.48 1433.57,481.30 1409.18,508.21 1402.23,524.16 1385.06,582.16 1376.15,609.89 1360.21,639.09 1283.23,715.84 1244.81,751.68 1222.67,779.21 1218.65,796.02 1218.39,817.16 1265.74,954.72 1279.90,970.59 1299.83,982.32 1440.45,1027.02 1547.89,1157.26 1901.81,1313.39"/>
    <poly id="28268610#1" type="leisure" color="207,245,201" fill="1" layer="-2.00" shape="1901.81,1313.39 1977.96,1286.71 2153.84,1218.74 2722.21,992.02 2858.32,935.72 2918.90,911.08 2997.12,853.79 3076.57,774.06 3118.77,679.39 3115.72,581.85 3145.51,520.18 3137.13,433.48 3147.90,401.41 3113.86,337.77 3005.62,359.66 2991.50,355.65 2930.08,319.89 2853.51,271.76 2814.27,234.79 2786.50,198.05 2776.23,176.02 2737.21,64.20 2719.76,45.06 2692.08,29.78 2608.28,-7.09 2588.31,-7.87 2562.69,-3.39 2516.21,6.69 2469.30,22.37 2438.97,37.43 2366.17,74.35 2355.64,86.18 2342.60,102.24 2278.17,221.78 2269.11,231.67 2254.32,237.19 2235.34,237.97 2213.50,235.42 2142.55,201.66 2124.52,198.05 2106.78,199.18 2075.07,207.16 2044.69,217.00 2018.09,228.03 1991.13,243.68 1969.74,269.90 1949.55,289.51 1920.42,302.84 1866.60,310.62 1806.45,325.87 1674.33,361.56 1546.72,400.54 1495.77,435.48 1433.57,481.30 1409.18,508.21 1402.23,524.16 1385.06,582.16 1376.15,609.89 1360.21,639.09 1283.23,715.84 1244.81,751.68 1222.67,779.21 1218.65,796.02 1218.39,817.16 1265.74,954.72 1279.90,970.59 1299.83,982.32 1440.45,1027.02 1547.89,1157.26 1901.81,1313.39"/>
    <poly id="28268610#2" type="natural" color="140,196,107" fill="1" layer="-4.00" shape="1901.81,1313.39 1977.96,1286.71 2153.84,1218.74 2722.21,992.02 2858.32,935.72 2918.90,911.08 2997.12,853.79 3076.57,774.06 3118.77,679.39 3115.72,581.85 3145.51,520.18 3137.13,433.48 3147.90,401.41 3113.86,337.77 3005.62,359.66 2991.50,355.65 2930.08,319.89 2853.51,271.76 2814.27,234.79 2786.50,198.05 2776.23,176.02 2737.21,64.20 2719.76,45.06 2692.08,29.78 2608.28,-7.09 2588.31,-7.87 2562.69,-3.39 2516.21,6.69 2469.30,22.37 2438.97,37.43 2366.17,74.35 2355.64,86.18 2342.60,102.24 2278.17,221.78 2269.11,231.67 2254.32,237.19 2235.34,237.97 2213.50,235.42 2142.55,201.66 2124.52,198.05 2106.78,199.18 2075.07,207.16 2044.69,217.00 2018.09,228.03 1991.13,243.68 1969.74,269.90 1949.55,289.51 1920.42,302.84 1866.60,310.62 1806.45,325.87 1674.33,361.56 1546.72,400.54 1495.77,435.48 1433.57,481.30 1409.18,508.21 1402.23,524.16 1385.06,582.16 1376.15,609.89 1360.21,639.09 1283.23,715.84 1244.81,751.68 1222.67,779.21 1218.65,796.02 1218.39,817.16 1265.74,954.72 1279.90,970.59 1299.83,982.32 1440.45,1027.02 1547.89,1157.26 1901.81,1313.39"/>
    <poly id="28268610#3" type="tourism" color="207,245,201" fill="1" layer="-2.00" shape="1901.81,1313.39 1977.96,1286.71 2153.84,1218.74 2722.21,992.02 2858.32,935.72 2918.90,911.08 2997.12,853.79 3076.57,774.06 3118.77,679.39 3115.72,581.85 3145.51,520.18 3137.13,433.48 3147.90,401.41 3113.86,337.77 3005.62,359.66 2991.50,355.65 2930.08,319.89 2853.51,271.76 2814.27,234.79 2786.50,198.05 2776.23,176.02 2737.21,64.20 2719.76,45.06 2692.08,29.78 2608.28,-7.09 2588.31,-7.87 2562.69,-3.39 2516.21,6.69 2469.30,22.37 2438.97,37.43 2366.17,74.35 2355.64,86.18 2342.60,102.24 2278.17,221.78 2269.11,231.67 2254.32,237.19 2235.34,237.97 2213.50,235.42 2142.55,201.66 2124.52,198.05 2106.78,199.18 2075.07,207.16 2044.69,217.00 2018.09,228.03 1991.13,243.68 1969.74,269.90 1949.55,289.51 1920.42,302.84 1866.60,310.62 1806.45,325.87 1674.33,361.56 1546.72,400.54 1495.77,435.48 1433.57,481.30 1409.18,508.21 1402.23,524.16 1385.06,582.16 1376.15,609.89 1360.21,639.09 1283.23,715.84 1244.81,751.68 1222.67,779.21 1218.65,796.02 1218.39,817.16 1265.74,954.72 1279.90,970.59 1299.83,982.32 1440.45,1027.02 1547.89,1157.26 1901.81,1313.39"/>
    <poly id="356233643" type="building" color="255,230,230" fill="1" layer="-1.00" shape="1552.14,1432.75 1565.37,1418.86 1554.10,1408.25 1540.87,1422.14 1552.14,1432.75"/>
    <poly id="356233712" type="building" color="255,230,230" fill="1" layer="-1.00" shape="1544.46,1495.34 1561.01,1479.49 1548.69,1466.77 1532.14,1482.62 1544.46,1495.34"/>
    <poly id="356233813" type="building" color="255,230,230" fill="1" layer="-1.00" shape="1514.38,1467.22 1525.77,1456.36 1513.72,1443.87 1502.33,1454.71 1514.38,1467.22"/>
    <poly id="356233815" type="building" color="255,230,230" fill="1" layer="-1.00" shape="1688.00,1488.33 1698.31,1479.52 1685.65,1464.90 1675.34,1473.71 1688.00,1488.33"/>
    <poly id="356233817" type="building" color="255,230,230" fill="1" layer="-1.00" shape="1627.99,1398.86 1639.50,1386.77 1621.59,1369.92 1610.07,1382.00 1627.99,1398.86"/>
    <poly id="356233836" type="building" color="255,230,230" fill="1" layer="-1.00" shape="1664.48,1441.66 1675.01,1430.64 1664.19,1420.44 1653.67,1431.46 1664.48,1441.66"/>
    <poly id="356233879" type="building" color="255,230,230" fill="1" layer="-1.00" shape="1583.69,1386.82 1594.03,1375.96 1579.78,1362.54 1569.43,1373.41 1583.69,1386.82"/>
    <poly id="356234030" type="building" color="255,230,230" fill="1" layer="-1.00" shape="1553.26,1340.84 1560.81,1332.40 1547.25,1320.44 1539.71,1328.88 1553.26,1340.84"/>
    <poly id="356234048" type="building" color="255,230,230" fill="1" layer="-1.00" shape="1722.71,1473.07 1733.37,1463.76 1719.90,1448.55 1709.25,1457.86 1722.71,1473.07"/>
    <poly id="356234050" type="building" color="255,230,230" fill="1" layer="-1.00" shape="1609.76,1416.47 1620.62,1405.06 1604.24,1389.64 1593.38,1401.05 1609.76,1416.47"/>
    <poly id="356234063" type="building" color="255,230,230" fill="1" layer="-1.00" shape="1656.58,1463.50 1665.65,1454.01 1649.35,1438.65 1640.30,1448.14 1656.58,1463.50"/>
    <poly id="356234090" type="building" color="255,230,230" fill="1" layer="-1.00" shape="1590.68,1315.55 1602.44,1306.72 1591.45,1292.26 1579.69,1301.10 1590.68,1315.55"/>
    <poly id="356234117" type="building" color="255,230,230" fill="1" layer="-1.00" shape="1565.43,1404.43 1575.74,1393.61 1564.43,1382.96 1554.11,1393.79 1565.43,1404.43"/>
    <poly id="356234130" type="building" color="255,230,230" fill="1" layer="-1.00" shape="1730.10,1425.13 1716.38,1437.13 1734.68,1457.81 1748.41,1445.81 1730.10,1425.13"/>
    <poly id="356234182" type="building" color="255,230,230" fill="1" layer="-1.00" shape="1700.49,1419.82 1711.88,1408.37 1691.56,1388.41 1680.17,1399.87 1700.49,1419.82"/>
    <poly id="356234272" type="building" color="255,230,230" fill="1" layer="-1.00" shape="1579.60,1337.79 1590.77,1327.40 1567.71,1302.92 1556.54,1313.31 1579.60,1337.79"/>
    <poly id="356234290" type="building" color="255,230,230" fill="1" layer="-1.00" shape="1693.96,1442.67 1705.05,1431.66 1691.00,1417.70 1679.91,1428.71 1693.96,1442.67"/>
    <poly id="356234292" type="building" color="255,230,230" fill="1" layer="-1.00" shape="1593.61,1439.46 1609.28,1423.00 1587.96,1402.94 1572.29,1419.39 1593.61,1439.46"/>
    <poly id="356234318" type="building" color="255,230,230" fill="1" layer="-1.00" shape="1645.13,1479.74 1656.28,1468.08 1637.36,1450.23 1626.21,1461.91 1645.13,1479.74"/>
    <poly id="356234372" type="amenity" color="237,199,199" fill="1" layer="-1.00" shape="1637.84,1352.31 1652.74,1334.54 1628.23,1304.29 1610.60,1329.76 1637.84,1352.31"/>
    <poly id="356234372#1" type="building" color="255,230,230" fill="1" layer="-1.00" shape="1637.84,1352.31 1652.74,1334.54 1628.23,1304.29 1610.60,1329.76 1637.84,1352.31"/>
    <poly id="356234385" type="building" color="255,230,230" fill="1" layer="-1.00" shape="1695.49,1465.90 1703.98,1457.01 1690.64,1444.42 1682.16,1453.32 1695.49,1465.90"/>
    <poly id="356234453" type="building" color="255,230,230" fill="1" layer="-1.00" shape="1530.79,1480.33 1546.69,1465.11 1537.85,1455.98 1521.95,1471.21 1530.79,1480.33"/>
    <poly id="356234515" type="building" color="255,230,230" fill="1" layer="-1.00" shape="1647.10,1382.81 1662.93,1366.19 1650.73,1354.72 1634.91,1371.33 1647.10,1382.81"/>
    <poly id="356234522" type="building" color="255,230,230" fill="1" layer="-1.00" shape="1712.22,1490.02 1721.88,1479.89 1704.66,1463.66 1695.00,1473.78 1712.22,1490.02"/>
    <poly id="356245703" type="building" color="255,230,230" fill="1" layer="-1.00" shape="1877.96,1377.08 1944.39,1355.84 1940.36,1343.41 1873.93,1364.66 1877.96,1377.08"/>
    <poly id="356245769" type="building" color="255,230,230" fill="1" layer="-1.00" shape="1938.85,1467.17 1956.97,1462.09 1952.50,1446.32 1934.38,1451.41 1938.85,1467.17"/>
    <poly id="356245800" type="building" color="255,230,230" fill="1" layer="-1.00" shape="1935.02,1402.87 1949.39,1397.73 1938.29,1367.11 1923.92,1372.25 1935.02,1402.87"/>
    <poly id="356245803" type="building" color="255,230,230" fill="1" layer="-1.00" shape="1939.83,1441.71 1967.06,1431.95 1958.13,1407.31 1930.90,1417.07 1939.83,1441.71"/>
    <poly id="356245896" type="building" color="255,230,230" fill="1" layer="-1.00" shape="1907.85,1452.90 1935.49,1443.01 1926.73,1418.84 1899.09,1428.75 1907.85,1452.90"/>
    <poly id="356246081" type="building" color="255,230,230" fill="1" layer="-1.00" shape="1896.26,1412.77 1912.10,1407.09 1908.84,1398.10 1893.00,1403.77 1896.26,1412.77"/>
    <poly id="356246197" type="building" color="255,230,230" fill="1" layer="-1.00" shape="1894.68,1399.06 1907.03,1394.63 1899.50,1373.87 1887.13,1378.30 1888.89,1383.17 1886.52,1384.01 1889.36,1391.84 1891.75,1390.98 1894.68,1399.06"/>
    <poly id="356458855" type="building" color="255,230,230" fill="1" layer="-1.00" shape="1559.93,1264.53 1570.11,1256.21 1559.97,1243.95 1549.80,1252.27 1559.93,1264.53"/>
    <poly id="358470680" type="building" color="255,230,230" fill="1" layer="-1.00" shape="1591.93,1288.85 1606.97,1308.49 1618.41,1299.83 1603.36,1280.19 1591.93,1288.85"/>
    <poly id="358470687" type="building" color="255,230,230" fill="1" layer="-1.00" shape="1532.95,1450.21 1543.72,1438.19 1528.61,1424.81 1517.84,1436.84 1532.95,1450.21"/>
    <poly id="358470696" type="building" color="255,230,230" fill="1" layer="-1.00" shape="1535.68,1250.91 1523.69,1261.96 1550.42,1290.62 1562.41,1279.58 1535.68,1250.91"/>
    <poly id="358470704" type="building" color="255,230,230" fill="1" layer="-1.00" shape="1591.24,1354.79 1609.25,1369.23 1617.41,1359.19 1599.40,1344.74 1591.24,1354.79"/>
    <poly id="358470711" type="building" color="255,230,230" fill="1" layer="-1.00" shape="1562.89,1357.13 1574.87,1344.50 1563.22,1333.59 1551.24,1346.23 1562.89,1357.13"/>
    <poly id="358470725" type="building" color="255,230,230" fill="1" layer="-1.00" shape="1518.53,1368.83 1527.19,1359.37 1515.80,1349.08 1507.15,1358.54 1518.53,1368.83"/>
    <poly id="358470734" type="building" color="255,230,230" fill="1" layer="-1.00" shape="1523.21,1375.41 1538.15,1388.33 1548.44,1376.59 1533.51,1363.67 1523.21,1375.41"/>
    <poly id="358470748" type="building" color="255,230,230" fill="1" layer="-1.00" shape="1579.59,1455.22 1592.56,1441.55 1579.24,1429.05 1566.27,1442.72 1579.59,1455.22"/>
    <poly id="358470757" type="building" color="255,230,230" fill="1" layer="-1.00" shape="1560.23,1475.80 1575.60,1460.30 1555.75,1440.83 1540.36,1456.33 1560.23,1475.80"/>
    <poly id="358470758" type="building" color="255,230,230" fill="1" layer="-1.00" shape="1498.54,1377.84 1523.62,1401.24 1534.74,1389.48 1509.67,1366.07 1498.54,1377.84"/>
    <poly id="358470763" type="building" color="255,230,230" fill="1" layer="-1.00" shape="1601.88,1337.21 1623.74,1355.84 1629.67,1348.97 1607.80,1330.34 1601.88,1337.21"/>
    <poly id="359812184" type="building" color="255,230,230" fill="1" layer="-1.00" shape="1608.45,1478.78 1628.15,1498.63 1644.02,1483.08 1624.31,1463.23 1608.45,1478.78"/>
    <poly id="361691471" type="water" color="181,209,209" fill="1" layer="-4.00" shape="1830.92,1206.81 1833.51,1187.94 1850.33,1187.13 1863.67,1192.77 1880.62,1202.17 1879.93,1215.09 1869.58,1227.68 1864.72,1231.33 1852.60,1231.49 1843.99,1224.77 1830.92,1206.81"/>
    <poly id="645761792" type="building" color="255,230,230" fill="1" layer="-1.00" shape="1626.50,1196.77 1617.77,1218.38 1634.79,1225.45 1630.63,1237.66 1643.31,1242.91 1640.75,1248.55 1655.49,1253.59 1654.23,1257.54 1685.04,1268.53 1685.86,1273.19 1726.51,1288.34 1737.63,1262.01 1712.08,1251.14 1715.84,1236.32 1626.50,1196.77"/>
    <poi id="1883398390" type="amenity" color="237,199,199" layer="4.00" x="1876.75" y="1357.26"/>
    <poi id="1883402874" type="shop" color="237,199,255" layer="4.00" x="1927.59" y="1342.39"/>
    <poi id="3159028265" type="shop" color="237,199,255" layer="4.00" x="1654.96" y="1360.35"/>
    <poi id="3384147271" type="amenity" color="237,199,199" layer="4.00" x="1704.39" y="1391.12"/>
</additional>
