<?xml version="1.0" encoding="UTF-8"?>

<!-- generated on Fri Nov 23 09:46:08 2018 by SUMO netconvert Version 0.32.0
<?xml version="1.0" encoding="UTF-8"?>

<configuration xmlns:xsi="http://www.w3.org/2001/XMLSchema-instance" xsi:noNamespaceSchemaLocation="http://sumo.dlr.de/xsd/netconvertConfiguration.xsd">

    <input>
        <node-files value="vanet.nod.xml"/>
        <edge-files value="vanet.edg.xml"/>
        <type-files value="vanet.type.xml"/>
    </input>

    <output>
        <output-file value="vanet.net.xml"/>
    </output>

</configuration>
-->

<net version="0.27" xmlns:xsi="http://www.w3.org/2001/XMLSchema-instance" xsi:noNamespaceSchemaLocation="http://sumo.dlr.de/xsd/net_file.xsd">

    <location netOffset="400.00,-100.00" convBoundary="0.00,0.00,800.00,200.00" origBoundary="-400.00,-300.00,400.00,300.00" projParameter="!"/>

    <type id="2L40" priority="75" numLanes="2" speed="40.00"/>

    <edge id=":n0_0" function="internal">
        <lane id=":n0_0_0" index="0" speed="40.00" length="25.94" shape="10.60,204.95 2.98,203.91 -1.28,200.79 -2.17,195.59 0.31,188.31"/>
    </edge>
    <edge id=":n0_1" function="internal">
        <lane id=":n0_1_0" index="0" speed="40.00" length="18.49" shape="10.60,201.65 5.16,200.91 2.13,198.68 1.50,194.97 3.26,189.78"/>
    </edge>
    <edge id=":n0_2" function="internal">
        <lane id=":n0_2_0" index="0" speed="40.00" length="2.68" shape="10.60,201.65 9.36,200.83 8.95,200.00 9.07,199.76"/>
    </edge>
    <edge id=":n0_6" function="internal">
        <lane id=":n0_6_0" index="0" speed="40.00" length="2.14" shape="9.07,199.76 9.36,199.18 10.60,198.35"/>
    </edge>
    <edge id=":n0_3" function="internal">
        <lane id=":n0_3_0" index="0" speed="40.00" length="3.61" shape="9.17,192.73 8.82,193.75 8.95,194.47 9.54,194.91 10.60,195.05"/>
    </edge>
    <edge id=":n0_4" function="internal">
        <lane id=":n0_4_0" index="0" speed="40.00" length="11.05" shape="6.22,191.26 5.16,194.36 5.54,196.58 7.35,197.91 10.60,198.35"/>
    </edge>
    <edge id=":n0_5" function="internal">
        <lane id=":n0_5_0" index="0" speed="40.00" length="2.21" shape="6.22,191.26 4.92,192.00 4.20,192.00"/>
    </edge>
    <edge id=":n0_7" function="internal">
        <lane id=":n0_7_0" index="0" speed="40.00" length="2.61" shape="4.20,192.00 4.00,192.00 3.45,191.26 3.26,189.78"/>
    </edge>
    <edge id=":n1_0" function="internal">
        <lane id=":n1_0_0" index="0" speed="40.00" length="17.65" shape="205.55,204.95 187.90,204.95"/>
        <lane id=":n1_0_1" index="1" speed="40.00" length="17.65" shape="205.55,201.65 187.90,201.65"/>
    </edge>
    <edge id=":n1_2" function="internal">
        <lane id=":n1_2_0" index="0" speed="40.00" length="5.01" shape="205.55,201.65 202.31,200.92 200.92,199.95"/>
    </edge>
    <edge id=":n1_3" function="internal">
        <lane id=":n1_3_0" index="0" speed="40.00" length="2.41" shape="205.55,201.65 204.31,200.83 203.90,200.00"/>
    </edge>
    <edge id=":n1_12" function="internal">
        <lane id=":n1_12_0" index="0" speed="40.00" length="12.87" shape="200.92,199.95 199.16,198.72 196.09,195.05 193.11,189.92"/>
    </edge>
    <edge id=":n1_13" function="internal">
        <lane id=":n1_13_0" index="0" speed="40.00" length="2.41" shape="203.90,200.00 204.31,199.18 205.55,198.35"/>
    </edge>
    <edge id=":n1_4" function="internal">
        <lane id=":n1_4_0" index="0" speed="40.00" length="10.68" shape="199.02,186.97 200.94,190.50 202.67,193.03 204.21,194.54 205.55,195.05"/>
    </edge>
    <edge id=":n1_5" function="internal">
        <lane id=":n1_5_0" index="0" speed="40.00" length="14.26" shape="196.07,188.44 198.52,192.78 200.91,195.87 203.26,197.73 205.55,198.35"/>
    </edge>
    <edge id=":n1_6" function="internal">
        <lane id=":n1_6_0" index="0" speed="40.00" length="20.58" shape="196.07,188.44 198.03,194.22 197.33,198.35 193.95,200.82 187.90,201.65"/>
    </edge>
    <edge id=":n1_7" function="internal">
        <lane id=":n1_7_0" index="0" speed="40.00" length="2.41" shape="196.07,188.44 195.88,189.92 195.33,190.65"/>
    </edge>
    <edge id=":n1_14" function="internal">
        <lane id=":n1_14_0" index="0" speed="40.00" length="2.41" shape="195.33,190.65 194.41,190.65 193.11,189.92"/>
    </edge>
    <edge id=":n1_8" function="internal">
        <lane id=":n1_8_0" index="0" speed="40.00" length="5.70" shape="187.90,195.05 189.58,194.82 190.51,194.14 190.71,192.99 190.16,191.39"/>
    </edge>
    <edge id=":n1_9" function="internal">
        <lane id=":n1_9_0" index="0" speed="40.00" length="17.65" shape="187.90,195.05 205.55,195.05"/>
        <lane id=":n1_9_1" index="1" speed="40.00" length="17.65" shape="187.90,198.35 205.55,198.35"/>
    </edge>
    <edge id=":n1_11" function="internal">
        <lane id=":n1_11_0" index="0" speed="40.00" length="2.41" shape="187.90,198.35 189.14,199.17 189.55,200.00"/>
    </edge>
    <edge id=":n1_15" function="internal">
        <lane id=":n1_15_0" index="0" speed="40.00" length="2.41" shape="189.55,200.00 189.14,200.82 187.90,201.65"/>
    </edge>
    <edge id=":n2_0" function="internal">
        <lane id=":n2_0_0" index="0" speed="40.00" length="17.65" shape="612.10,204.95 594.45,204.95"/>
        <lane id=":n2_0_1" index="1" speed="40.00" length="17.65" shape="612.10,201.65 594.45,201.65"/>
    </edge>
    <edge id=":n2_2" function="internal">
        <lane id=":n2_2_0" index="0" speed="40.00" length="7.58" shape="612.10,201.65 606.05,200.82 604.86,199.95"/>
    </edge>
    <edge id=":n2_3" function="internal">
        <lane id=":n2_3_0" index="0" speed="40.00" length="2.41" shape="612.10,201.65 610.86,200.83 610.45,200.00"/>
    </edge>
    <edge id=":n2_11" function="internal">
        <lane id=":n2_11_0" index="0" speed="40.00" length="13.00" shape="604.86,199.95 602.67,198.35 601.97,194.22 603.93,188.44"/>
    </edge>
    <edge id=":n2_12" function="internal">
        <lane id=":n2_12_0" index="0" speed="40.00" length="2.41" shape="610.45,200.00 610.86,199.18 612.10,198.35"/>
    </edge>
    <edge id=":n2_4" function="internal">
        <lane id=":n2_4_0" index="0" speed="40.00" length="5.70" shape="609.84,191.39 609.29,192.99 609.49,194.14 610.42,194.82 612.10,195.05"/>
    </edge>
    <edge id=":n2_5" function="internal">
        <lane id=":n2_5_0" index="0" speed="40.00" length="17.88" shape="606.89,189.92 603.91,195.05 600.84,198.72 597.69,200.92 594.45,201.65"/>
    </edge>
    <edge id=":n2_6" function="internal">
        <lane id=":n2_6_0" index="0" speed="40.00" length="2.41" shape="606.89,189.92 605.59,190.65 604.67,190.65"/>
    </edge>
    <edge id=":n2_13" function="internal">
        <lane id=":n2_13_0" index="0" speed="40.00" length="2.41" shape="604.67,190.65 604.12,189.92 603.93,188.44"/>
    </edge>
    <edge id=":n2_7" function="internal">
        <lane id=":n2_7_0" index="0" speed="40.00" length="10.68" shape="594.45,195.05 595.79,194.54 597.33,193.03 599.06,190.50 600.98,186.97"/>
    </edge>
    <edge id=":n2_8" function="internal">
        <lane id=":n2_8_0" index="0" speed="40.00" length="17.65" shape="594.45,195.05 612.10,195.05"/>
        <lane id=":n2_8_1" index="1" speed="40.00" length="17.65" shape="594.45,198.35 612.10,198.35"/>
    </edge>
    <edge id=":n2_10" function="internal">
        <lane id=":n2_10_0" index="0" speed="40.00" length="2.41" shape="594.45,198.35 595.69,199.17 596.10,200.00"/>
    </edge>
    <edge id=":n2_14" function="internal">
        <lane id=":n2_14_0" index="0" speed="40.00" length="2.41" shape="596.10,200.00 595.69,200.82 594.45,201.65"/>
    </edge>
    <edge id=":n3_0" function="internal">
        <lane id=":n3_0_0" index="0" speed="40.00" length="25.94" shape="799.69,188.31 802.17,195.59 801.28,200.79 797.02,203.91 789.40,204.95"/>
    </edge>
    <edge id=":n3_1" function="internal">
        <lane id=":n3_1_0" index="0" speed="40.00" length="18.49" shape="796.74,189.78 798.50,194.97 797.87,198.68 794.84,200.91 789.40,201.65"/>
    </edge>
    <edge id=":n3_2" function="internal">
        <lane id=":n3_2_0" index="0" speed="40.00" length="2.68" shape="796.74,189.78 796.55,191.26 796.00,192.00 795.73,192.00"/>
    </edge>
    <edge id=":n3_6" function="internal">
        <lane id=":n3_6_0" index="0" speed="40.00" length="2.14" shape="795.73,192.00 795.08,192.00 793.78,191.26"/>
    </edge>
    <edge id=":n3_3" function="internal">
        <lane id=":n3_3_0" index="0" speed="40.00" length="3.61" shape="789.40,195.05 790.46,194.91 791.05,194.47 791.18,193.75 790.83,192.73"/>
    </edge>
    <edge id=":n3_4" function="internal">
        <lane id=":n3_4_0" index="0" speed="40.00" length="11.05" shape="789.40,198.35 792.65,197.91 794.46,196.58 794.84,194.36 793.78,191.26"/>
    </edge>
    <edge id=":n3_5" function="internal">
        <lane id=":n3_5_0" index="0" speed="40.00" length="2.21" shape="789.40,198.35 790.64,199.17 790.96,199.82"/>
    </edge>
    <edge id=":n3_7" function="internal">
        <lane id=":n3_7_0" index="0" speed="40.00" length="2.61" shape="790.96,199.82 791.05,200.00 790.64,200.82 789.40,201.65"/>
    </edge>
    <edge id=":n4_0" function="internal">
        <lane id=":n4_0_0" index="0" speed="40.00" length="6.14" shape="102.10,15.27 101.05,13.70 100.00,13.17 98.95,13.70 97.90,15.27"/>
    </edge>
    <edge id=":n4_1" function="internal">
        <lane id=":n4_1_0" index="0" speed="40.00" length="22.38" shape="105.05,13.80 102.60,7.04 102.95,2.21 106.12,-0.68 112.10,-1.65"/>
    </edge>
    <edge id=":n4_2" function="internal">
        <lane id=":n4_2_0" index="0" speed="40.00" length="2.41" shape="105.05,13.80 105.24,12.32 105.79,11.58"/>
    </edge>
    <edge id=":n4_11" function="internal">
        <lane id=":n4_11_0" index="0" speed="40.00" length="2.41" shape="105.79,11.58 106.71,11.58 108.01,12.32"/>
    </edge>
    <edge id=":n4_3" function="internal">
        <lane id=":n4_3_0" index="0" speed="40.00" length="7.60" shape="112.10,4.95 110.49,5.32 109.77,6.42 109.92,8.27 110.96,10.84"/>
    </edge>
    <edge id=":n4_4" function="internal">
        <lane id=":n4_4_0" index="0" speed="40.00" length="18.53" shape="112.10,4.95 107.82,5.60 104.03,7.53 100.72,10.76 97.90,15.27"/>
    </edge>
    <edge id=":n4_5" function="internal">
        <lane id=":n4_5_0" index="0" speed="40.00" length="22.19" shape="112.10,1.65 106.87,2.41 102.27,4.69 98.30,8.48 94.95,13.80"/>
    </edge>
    <edge id=":n4_6" function="internal">
        <lane id=":n4_6_0" index="0" speed="40.00" length="2.20" shape="112.10,1.65 110.86,0.83 110.54,0.19"/>
    </edge>
    <edge id=":n4_12" function="internal">
        <lane id=":n4_12_0" index="0" speed="40.00" length="2.62" shape="110.54,0.19 110.45,0.00 110.86,-0.83 112.10,-1.65"/>
    </edge>
    <edge id=":n4_7" function="internal">
        <lane id=":n4_7_0" index="0" speed="40.00" length="29.52" shape="89.04,10.84 93.45,3.93 98.76,-1.00 104.97,-3.96 112.10,-4.95"/>
    </edge>
    <edge id=":n4_8" function="internal">
        <lane id=":n4_8_0" index="0" speed="40.00" length="25.86" shape="91.99,12.32 95.87,6.21 100.51,1.84 105.92,-0.78 112.10,-1.65"/>
    </edge>
    <edge id=":n4_9" function="internal">
        <lane id=":n4_9_0" index="0" speed="40.00" length="11.94" shape="91.99,12.32 96.00,6.32 100.00,4.32 100.22,4.43"/>
    </edge>
    <edge id=":n4_10" function="internal">
        <lane id=":n4_10_0" index="0" speed="40.00" length="2.63" shape="91.99,12.32 93.29,11.58 94.21,11.58 94.34,11.76"/>
    </edge>
    <edge id=":n4_13" function="internal">
        <lane id=":n4_13_0" index="0" speed="40.00" length="11.44" shape="100.22,4.43 104.00,6.32 108.01,12.32"/>
    </edge>
    <edge id=":n4_14" function="internal">
        <lane id=":n4_14_0" index="0" speed="40.00" length="2.19" shape="94.34,11.76 94.76,12.32 94.95,13.80"/>
    </edge>
    <edge id=":n5_0" function="internal">
        <lane id=":n5_0_0" index="0" speed="40.00" length="6.14" shape="702.10,15.27 701.05,13.70 700.00,13.17 698.95,13.70 697.90,15.27"/>
    </edge>
    <edge id=":n5_1" function="internal">
        <lane id=":n5_1_0" index="0" speed="40.00" length="18.53" shape="702.10,15.27 699.28,10.76 695.97,7.53 692.18,5.60 687.90,4.95"/>
    </edge>
    <edge id=":n5_2" function="internal">
        <lane id=":n5_2_0" index="0" speed="40.00" length="22.19" shape="705.05,13.80 701.70,8.48 697.73,4.69 693.13,2.41 687.90,1.65"/>
    </edge>
    <edge id=":n5_3" function="internal">
        <lane id=":n5_3_0" index="0" speed="40.00" length="2.28" shape="705.05,13.80 705.24,12.32 705.71,11.69"/>
    </edge>
    <edge id=":n5_12" function="internal">
        <lane id=":n5_12_0" index="0" speed="40.00" length="2.54" shape="705.71,11.69 705.79,11.58 706.71,11.58 708.01,12.32"/>
    </edge>
    <edge id=":n5_4" function="internal">
        <lane id=":n5_4_0" index="0" speed="40.00" length="29.52" shape="687.90,-4.95 695.03,-3.96 701.24,-1.00 706.55,3.93 710.96,10.84"/>
    </edge>
    <edge id=":n5_5" function="internal">
        <lane id=":n5_5_0" index="0" speed="40.00" length="25.86" shape="687.90,-1.65 694.08,-0.78 699.49,1.84 704.13,6.21 708.01,12.32"/>
    </edge>
    <edge id=":n5_6" function="internal">
        <lane id=":n5_6_0" index="0" speed="40.00" length="10.71" shape="687.90,-1.65 693.88,-0.68 697.05,2.21 697.07,2.58"/>
    </edge>
    <edge id=":n5_7" function="internal">
        <lane id=":n5_7_0" index="0" speed="40.00" length="2.69" shape="687.90,-1.65 689.14,-0.83 689.55,0.00 689.42,0.25"/>
    </edge>
    <edge id=":n5_13" function="internal">
        <lane id=":n5_13_0" index="0" speed="40.00" length="11.66" shape="697.07,2.58 697.40,7.04 694.95,13.80"/>
    </edge>
    <edge id=":n5_14" function="internal">
        <lane id=":n5_14_0" index="0" speed="40.00" length="2.13" shape="689.42,0.25 689.14,0.83 687.90,1.65"/>
    </edge>
    <edge id=":n5_8" function="internal">
        <lane id=":n5_8_0" index="0" speed="40.00" length="7.60" shape="689.04,10.84 690.08,8.27 690.23,6.42 689.51,5.32 687.90,4.95"/>
    </edge>
    <edge id=":n5_9" function="internal">
        <lane id=":n5_9_0" index="0" speed="40.00" length="14.96" shape="691.99,12.32 693.74,7.65 693.64,4.32 691.69,2.32 687.90,1.65"/>
    </edge>
    <edge id=":n5_10" function="internal">
        <lane id=":n5_10_0" index="0" speed="40.00" length="23.38" shape="691.99,12.32 696.00,6.32 700.00,4.32 704.00,6.32 708.01,12.32"/>
    </edge>
    <edge id=":n5_11" function="internal">
        <lane id=":n5_11_0" index="0" speed="40.00" length="2.41" shape="691.99,12.32 693.29,11.58 694.21,11.58"/>
    </edge>
    <edge id=":n5_15" function="internal">
        <lane id=":n5_15_0" index="0" speed="40.00" length="2.41" shape="694.21,11.58 694.76,12.32 694.95,13.80"/>
    </edge>

    <edge id="D04" from="n0" to="n4" priority="75" type="2L40">
        <lane id="D04_0" index="0" speed="40.00" length="198.41" shape="0.31,188.31 89.04,10.84"/>
        <lane id="D04_1" index="1" speed="40.00" length="198.41" shape="3.26,189.78 91.99,12.32"/>
    </edge>
    <edge id="D14" from="n1" to="n4" priority="75" type="2L40">
        <lane id="D14_0" index="0" speed="40.00" length="196.91" shape="190.16,191.39 102.10,15.27"/>
        <lane id="D14_1" index="1" speed="40.00" length="196.91" shape="193.11,189.92 105.05,13.80"/>
    </edge>
    <edge id="D25" from="n2" to="n5" priority="75" type="2L40">
        <lane id="D25_0" index="0" speed="40.00" length="196.91" shape="600.98,186.97 689.04,10.84"/>
        <lane id="D25_1" index="1" speed="40.00" length="196.91" shape="603.93,188.44 691.99,12.32"/>
    </edge>
    <edge id="D35" from="n3" to="n5" priority="75" type="2L40">
        <lane id="D35_0" index="0" speed="40.00" length="198.41" shape="790.83,192.73 702.10,15.27"/>
        <lane id="D35_1" index="1" speed="40.00" length="198.41" shape="793.78,191.26 705.05,13.80"/>
    </edge>
    <edge id="L01" from="n1" to="n0" priority="75" type="2L40">
        <lane id="L01_0" index="0" speed="40.00" length="177.30" shape="187.90,204.95 10.60,204.95"/>
        <lane id="L01_1" index="1" speed="40.00" length="177.30" shape="187.90,201.65 10.60,201.65"/>
    </edge>
    <edge id="L12" from="n2" to="n1" priority="75" type="2L40">
        <lane id="L12_0" index="0" speed="40.00" length="388.90" shape="594.45,204.95 205.55,204.95"/>
        <lane id="L12_1" index="1" speed="40.00" length="388.90" shape="594.45,201.65 205.55,201.65"/>
    </edge>
    <edge id="L23" from="n3" to="n2" priority="75" type="2L40">
        <lane id="L23_0" index="0" speed="40.00" length="177.30" shape="789.40,204.95 612.10,204.95"/>
        <lane id="L23_1" index="1" speed="40.00" length="177.30" shape="789.40,201.65 612.10,201.65"/>
    </edge>
    <edge id="L45" from="n5" to="n4" priority="75" type="2L40">
        <lane id="L45_0" index="0" speed="40.00" length="575.80" shape="687.90,4.95 112.10,4.95"/>
        <lane id="L45_1" index="1" speed="40.00" length="575.80" shape="687.90,1.65 112.10,1.65"/>
    </edge>
    <edge id="R01" from="n0" to="n1" priority="75" type="2L40">
        <lane id="R01_0" index="0" speed="40.00" length="177.30" shape="10.60,195.05 187.90,195.05"/>
        <lane id="R01_1" index="1" speed="40.00" length="177.30" shape="10.60,198.35 187.90,198.35"/>
    </edge>
    <edge id="R12" from="n1" to="n2" priority="75" type="2L40">
        <lane id="R12_0" index="0" speed="40.00" length="388.90" shape="205.55,195.05 594.45,195.05"/>
        <lane id="R12_1" index="1" speed="40.00" length="388.90" shape="205.55,198.35 594.45,198.35"/>
    </edge>
    <edge id="R23" from="n2" to="n3" priority="75" type="2L40">
        <lane id="R23_0" index="0" speed="40.00" length="177.30" shape="612.10,195.05 789.40,195.05"/>
        <lane id="R23_1" index="1" speed="40.00" length="177.30" shape="612.10,198.35 789.40,198.35"/>
    </edge>
    <edge id="R45" from="n4" to="n5" priority="75" type="2L40">
        <lane id="R45_0" index="0" speed="40.00" length="575.80" shape="112.10,-4.95 687.90,-4.95"/>
        <lane id="R45_1" index="1" speed="40.00" length="575.80" shape="112.10,-1.65 687.90,-1.65"/>
    </edge>
    <edge id="U04" from="n4" to="n0" priority="75" type="2L40">
        <lane id="U04_0" index="0" speed="40.00" length="198.41" shape="97.90,15.27 9.17,192.73"/>
        <lane id="U04_1" index="1" speed="40.00" length="198.41" shape="94.95,13.80 6.22,191.26"/>
    </edge>
    <edge id="U14" from="n4" to="n1" priority="75" type="2L40">
        <lane id="U14_0" index="0" speed="40.00" length="196.91" shape="110.96,10.84 199.02,186.97"/>
        <lane id="U14_1" index="1" speed="40.00" length="196.91" shape="108.01,12.32 196.07,188.44"/>
    </edge>
    <edge id="U25" from="n5" to="n2" priority="75" type="2L40">
        <lane id="U25_0" index="0" speed="40.00" length="196.91" shape="697.90,15.27 609.84,191.39"/>
        <lane id="U25_1" index="1" speed="40.00" length="196.91" shape="694.95,13.80 606.89,189.92"/>
    </edge>
    <edge id="U35" from="n5" to="n3" priority="75" type="2L40">
        <lane id="U35_0" index="0" speed="40.00" length="198.41" shape="710.96,10.84 799.69,188.31"/>
        <lane id="U35_1" index="1" speed="40.00" length="198.41" shape="708.01,12.32 796.74,189.78"/>
    </edge>

    <tlLogic id="n1" type="static" programID="0" offset="0">
        <phase duration="30" state="GGggrrrrGGGg"/>
        <phase duration="8" state="yyggrrrryyyg"/>
        <phase duration="6" state="rrGGrrrrrrrG"/>
        <phase duration="8" state="rryyrrrrrrry"/>
        <phase duration="30" state="rrrrGGGgGrrr"/>
        <phase duration="8" state="rrrryyyyyrrr"/>
    </tlLogic>
    <tlLogic id="n2" type="static" programID="0" offset="0">
        <phase duration="30" state="GGggrrrGGGg"/>
        <phase duration="8" state="yyggrrryyyg"/>
        <phase duration="6" state="rrGGrrrrrrG"/>
        <phase duration="8" state="rryyrrrrrry"/>
        <phase duration="30" state="rrrrGGgGrrr"/>
        <phase duration="8" state="rrrryyyyrrr"/>
    </tlLogic>
    <tlLogic id="n4" type="static" programID="0" offset="0">
        <phase duration="30" state="rrrGGGgGGgg"/>
        <phase duration="8" state="rrryyygyygg"/>
        <phase duration="6" state="rrrrrrGrrGG"/>
        <phase duration="8" state="rrrrrryrryy"/>
        <phase duration="30" state="GGgGrrrrrrr"/>
        <phase duration="8" state="yyyyrrrrrrr"/>
    </tlLogic>
    <tlLogic id="n5" type="static" programID="0" offset="0">
        <phase duration="30" state="GGGgGGggrrrr"/>
        <phase duration="8" state="yyygyyggrrrr"/>
        <phase duration="6" state="rrrGrrGGrrrr"/>
        <phase duration="8" state="rrryrryyrrrr"/>
        <phase duration="30" state="GrrrrrrrGGGg"/>
        <phase duration="8" state="yrrrrrrryyyy"/>
    </tlLogic>

    <junction id="n0" type="priority" x="0.00" y="200.00" incLanes="L01_0 L01_1 U04_0 U04_1" intLanes=":n0_0_0 :n0_1_0 :n0_6_0 :n0_3_0 :n0_4_0 :n0_7_0" shape="10.60,206.55 10.60,193.45 -1.12,187.59">
        <request index="0" response="000000" foes="100000" cont="0"/>
        <request index="1" response="000000" foes="100000" cont="0"/>
        <request index="2" response="011000" foes="011000" cont="1"/>
        <request index="3" response="000000" foes="000100" cont="0"/>
        <request index="4" response="000000" foes="000100" cont="0"/>
        <request index="5" response="000011" foes="000011" cont="1"/>
    </junction>
    <junction id="n1" type="traffic_light" x="200.00" y="200.00" incLanes="L12_0 L12_1 U14_0 U14_1 R01_0 R01_1" intLanes=":n1_0_0 :n1_0_1 :n1_12_0 :n1_13_0 :n1_4_0 :n1_5_0 :n1_6_0 :n1_14_0 :n1_8_0 :n1_9_0 :n1_9_1 :n1_15_0" shape="205.55,206.55 205.55,193.45 200.45,186.25 188.73,192.11 187.90,193.45 187.90,206.55">
        <request index="0" response="000000000000" foes="100001000000" cont="0"/>
        <request index="1" response="000000000000" foes="100001000000" cont="0"/>
        <request index="2" response="011100000000" foes="011111000000" cont="1"/>
        <request index="3" response="011000110000" foes="011000110000" cont="1"/>
        <request index="4" response="011000000000" foes="011000001000" cont="0"/>
        <request index="5" response="011000000000" foes="011000001000" cont="0"/>
        <request index="6" response="011000000111" foes="111000000111" cont="0"/>
        <request index="7" response="000100000100" foes="000100000100" cont="1"/>
        <request index="8" response="000000000000" foes="000010000100" cont="0"/>
        <request index="9" response="000000000000" foes="000001111100" cont="0"/>
        <request index="10" response="000000000000" foes="000001111100" cont="0"/>
        <request index="11" response="000001000011" foes="000001000011" cont="1"/>
    </junction>
    <junction id="n2" type="traffic_light" x="600.00" y="200.00" incLanes="L23_0 L23_1 U25_0 U25_1 R12_0 R12_1" intLanes=":n2_0_0 :n2_0_1 :n2_11_0 :n2_12_0 :n2_4_0 :n2_5_0 :n2_13_0 :n2_7_0 :n2_8_0 :n2_8_1 :n2_14_0" shape="612.10,206.55 612.10,193.45 611.27,192.11 599.55,186.25 594.45,193.45 594.45,206.55">
        <request index="0" response="00000000000" foes="10000100000" cont="0"/>
        <request index="1" response="00000000000" foes="10000100000" cont="0"/>
        <request index="2" response="01110000000" foes="01111100000" cont="1"/>
        <request index="3" response="01100010000" foes="01100010000" cont="1"/>
        <request index="4" response="01100000000" foes="01100001000" cont="0"/>
        <request index="5" response="01100000111" foes="11100000111" cont="0"/>
        <request index="6" response="00010000100" foes="00010000100" cont="1"/>
        <request index="7" response="00000000000" foes="00001000100" cont="0"/>
        <request index="8" response="00000000000" foes="00000111100" cont="0"/>
        <request index="9" response="00000000000" foes="00000111100" cont="0"/>
        <request index="10" response="00000100011" foes="00000100011" cont="1"/>
    </junction>
    <junction id="n3" type="priority" x="800.00" y="200.00" incLanes="U35_0 U35_1 R23_0 R23_1" intLanes=":n3_0_0 :n3_1_0 :n3_6_0 :n3_3_0 :n3_4_0 :n3_7_0" shape="801.12,187.59 789.40,193.45 789.40,206.55">
        <request index="0" response="000000" foes="100000" cont="0"/>
        <request index="1" response="000000" foes="100000" cont="0"/>
        <request index="2" response="011000" foes="011000" cont="1"/>
        <request index="3" response="000000" foes="000100" cont="0"/>
        <request index="4" response="000000" foes="000100" cont="0"/>
        <request index="5" response="000011" foes="000011" cont="1"/>
    </junction>
    <junction id="n4" type="traffic_light" x="100.00" y="0.00" incLanes="D14_0 D14_1 L45_0 L45_1 D04_0 D04_1" intLanes=":n4_0_0 :n4_1_0 :n4_11_0 :n4_3_0 :n4_4_0 :n4_5_0 :n4_12_0 :n4_7_0 :n4_8_0 :n4_13_0 :n4_14_0" shape="100.67,15.99 112.39,10.13 112.10,6.55 112.10,-6.55 87.61,10.13 99.33,15.99">
        <request index="0" response="00000110000" foes="10000110000" cont="0"/>
        <request index="1" response="01110110000" foes="01111110000" cont="0"/>
        <request index="2" response="01000001000" foes="01000001000" cont="1"/>
        <request index="3" response="00000000000" foes="01000000100" cont="0"/>
        <request index="4" response="00000000000" foes="11000000011" cont="0"/>
        <request index="5" response="00000000000" foes="11000000011" cont="0"/>
        <request index="6" response="00110000010" foes="00110000010" cont="1"/>
        <request index="7" response="00000000000" foes="00001000010" cont="0"/>
        <request index="8" response="00000000000" foes="00001000010" cont="0"/>
        <request index="9" response="00000111000" foes="00000111110" cont="1"/>
        <request index="10" response="00000110001" foes="00000110001" cont="1"/>
    </junction>
    <junction id="n5" type="traffic_light" x="700.00" y="0.00" incLanes="D35_0 D35_1 R45_0 R45_1 D25_0 D25_1" intLanes=":n5_0_0 :n5_1_0 :n5_2_0 :n5_12_0 :n5_4_0 :n5_5_0 :n5_13_0 :n5_14_0 :n5_8_0 :n5_9_0 :n5_10_0 :n5_15_0" shape="700.67,15.99 712.39,10.13 687.90,-6.55 687.90,6.55 687.61,10.13 699.33,15.99">
        <request index="0" response="000000000000" foes="100001000000" cont="0"/>
        <request index="1" response="000000000000" foes="011111000000" cont="0"/>
        <request index="2" response="000000000000" foes="011111000000" cont="0"/>
        <request index="3" response="010000110000" foes="010000110000" cont="1"/>
        <request index="4" response="000000000000" foes="010000001000" cont="0"/>
        <request index="5" response="000000000000" foes="010000001000" cont="0"/>
        <request index="6" response="000000000111" foes="110000000111" cont="1"/>
        <request index="7" response="001100000110" foes="001100000110" cont="1"/>
        <request index="8" response="000000000110" foes="000010000110" cont="0"/>
        <request index="9" response="000000000110" foes="000010000110" cont="0"/>
        <request index="10" response="000001110110" foes="000001111110" cont="0"/>
        <request index="11" response="000001000001" foes="000001000001" cont="1"/>
    </junction>

    <junction id=":n0_6_0" type="internal" x="9.07" y="199.76" incLanes=":n0_2_0 U04_0 U04_1" intLanes=":n0_3_0 :n0_4_0"/>
    <junction id=":n0_7_0" type="internal" x="4.20" y="192.00" incLanes=":n0_5_0 L01_0 L01_1" intLanes=":n0_0_0 :n0_1_0"/>
    <junction id=":n1_12_0" type="internal" x="200.92" y="199.95" incLanes=":n1_2_0 R01_0 R01_1" intLanes=":n1_6_0 :n1_7_0 :n1_8_0 :n1_9_0 :n1_9_1"/>
    <junction id=":n1_13_0" type="internal" x="203.90" y="200.00" incLanes=":n1_3_0 R01_0 R01_1 U14_0 U14_1" intLanes=":n1_4_0 :n1_5_0 :n1_9_0 :n1_9_1"/>
    <junction id=":n1_14_0" type="internal" x="195.33" y="190.65" incLanes=":n1_7_0 L12_1 R01_0" intLanes=":n1_2_0 :n1_8_0"/>
    <junction id=":n1_15_0" type="internal" x="189.55" y="200.00" incLanes=":n1_11_0 L12_0 L12_1 U14_1" intLanes=":n1_0_0 :n1_0_1 :n1_6_0"/>
    <junction id=":n2_11_0" type="internal" x="604.86" y="199.95" incLanes=":n2_2_0 R12_0 R12_1" intLanes=":n2_5_0 :n2_6_0 :n2_7_0 :n2_8_0 :n2_8_1"/>
    <junction id=":n2_12_0" type="internal" x="610.45" y="200.00" incLanes=":n2_3_0 R12_0 R12_1 U25_0" intLanes=":n2_4_0 :n2_8_0 :n2_8_1"/>
    <junction id=":n2_13_0" type="internal" x="604.67" y="190.65" incLanes=":n2_6_0 L23_1 R12_0" intLanes=":n2_2_0 :n2_7_0"/>
    <junction id=":n2_14_0" type="internal" x="596.10" y="200.00" incLanes=":n2_10_0 L23_0 L23_1 U25_1" intLanes=":n2_0_0 :n2_0_1 :n2_5_0"/>
    <junction id=":n3_6_0" type="internal" x="795.73" y="192.00" incLanes=":n3_2_0 R23_0 R23_1" intLanes=":n3_3_0 :n3_4_0"/>
    <junction id=":n3_7_0" type="internal" x="790.96" y="199.82" incLanes=":n3_5_0 U35_0 U35_1" intLanes=":n3_0_0 :n3_1_0"/>
    <junction id=":n4_11_0" type="internal" x="105.79" y="11.58" incLanes=":n4_2_0 D04_1 L45_0" intLanes=":n4_3_0 :n4_9_0"/>
    <junction id=":n4_12_0" type="internal" x="110.54" y="0.19" incLanes=":n4_6_0 D04_0 D04_1 D14_1" intLanes=":n4_1_0 :n4_7_0 :n4_8_0"/>
    <junction id=":n4_13_0" type="internal" x="100.22" y="4.43" incLanes=":n4_9_0 L45_0 L45_1" intLanes=":n4_1_0 :n4_2_0 :n4_3_0 :n4_4_0 :n4_5_0"/>
    <junction id=":n4_14_0" type="internal" x="94.34" y="11.76" incLanes=":n4_10_0 D14_0 L45_0 L45_1" intLanes=":n4_0_0 :n4_4_0 :n4_5_0"/>
    <junction id=":n5_12_0" type="internal" x="705.71" y="11.69" incLanes=":n5_3_0 D25_1 R45_0 R45_1" intLanes=":n5_4_0 :n5_5_0 :n5_10_0"/>
    <junction id=":n5_13_0" type="internal" x="697.07" y="2.58" incLanes=":n5_6_0 D35_0 D35_1" intLanes=":n5_0_0 :n5_1_0 :n5_2_0 :n5_10_0 :n5_11_0"/>
    <junction id=":n5_14_0" type="internal" x="689.42" y="0.25" incLanes=":n5_7_0 D25_0 D25_1 D35_0 D35_1" intLanes=":n5_1_0 :n5_2_0 :n5_8_0 :n5_9_0"/>
    <junction id=":n5_15_0" type="internal" x="694.21" y="11.58" incLanes=":n5_11_0 D35_0 R45_1" intLanes=":n5_0_0 :n5_6_0"/>

    <connection from="D04" to="R45" fromLane="0" toLane="0" via=":n4_7_0" tl="n4" linkIndex="7" dir="L" state="o"/>